6321047
  -OEChem-11222502532D

 77 81  0     1  0  0  0  0  0999 V2000
    6.3238    2.4435    0.0000 S   0  0  0  0  0  0  0  0  0  0  0  0
    8.1779   -4.8809    0.0000 O   0  0  0  0  0  0  0  0  0  0  0  0
   10.0752   -4.8766    0.0000 O   0  0  0  0  0  0  0  0  0  0  0  0
    7.8689   -2.3118    0.0000 O   0  0  0  0  0  0  0  0  0  0  0  0
    4.6765    1.9083    0.0000 O   0  0  0  0  0  0  0  0  0  0  0  0
    4.3164    0.2141    0.0000 O   0  0  0  0  0  0  0  0  0  0  0  0
    6.2216   -2.8470    0.0000 O   0  0  0  0  0  0  0  0  0  0  0  0
    5.5807    3.1126    0.0000 O   0  0  0  0  0  0  0  0  0  0  0  0
    7.0670    1.7744    0.0000 O   0  0  0  0  0  0  0  0  0  0  0  0
    5.6547    1.7004    0.0000 N   0  0  3  0  0  0  0  0  0  0  0  0
    6.5817   -1.1528    0.0000 N   0  0  0  0  0  0  0  0  0  0  0  0
    9.6184    3.5140    0.0000 N   0  0  0  0  0  0  0  0  0  0  0  0
    9.1290   -3.5718    0.0000 C   0  0  2  0  0  0  0  0  0  0  0  0
    9.1290   -4.5718    0.0000 C   0  0  1  0  0  0  0  0  0  0  0  0
    8.1779   -3.2628    0.0000 C   0  0  2  0  0  0  0  0  0  0  0  0
   10.0752   -3.2671    0.0000 C   0  0  0  0  0  0  0  0  0  0  0  0
    7.5901   -4.0718    0.0000 C   0  0  0  0  0  0  0  0  0  0  0  0
   10.6588   -4.0718    0.0000 C   0  0  0  0  0  0  0  0  0  0  0  0
    4.3675    2.8593    0.0000 C   0  0  0  0  0  0  0  0  0  0  0  0
    4.9553    3.6684    0.0000 C   0  0  0  0  0  0  0  0  0  0  0  0
    3.4165    3.1684    0.0000 C   0  0  0  0  0  0  0  0  0  0  0  0
    4.3675    4.4774    0.0000 C   0  0  0  0  0  0  0  0  0  0  0  0
    3.4165    4.1684    0.0000 C   0  0  0  0  0  0  0  0  0  0  0  0
    5.6036   -0.9449    0.0000 C   0  0  2  0  0  0  0  0  0  0  0  0
    5.2946    0.0062    0.0000 C   0  0  1  0  0  0  0  0  0  0  0  0
    6.8907   -2.1039    0.0000 C   0  0  0  0  0  0  0  0  0  0  0  0
    5.9637    0.7493    0.0000 C   0  0  0  0  0  0  0  0  0  0  0  0
    4.9344   -1.6880    0.0000 C   0  0  0  0  0  0  0  0  0  0  0  0
    3.9563   -1.4801    0.0000 C   0  0  0  0  0  0  0  0  0  0  0  0
    6.9929    3.1867    0.0000 C   0  0  0  0  0  0  0  0  0  0  0  0
    3.2872   -2.2233    0.0000 C   0  0  0  0  0  0  0  0  0  0  0  0
    3.6473   -0.5291    0.0000 C   0  0  0  0  0  0  0  0  0  0  0  0
    7.9711    2.9788    0.0000 C   0  0  0  0  0  0  0  0  0  0  0  0
    6.6839    4.1377    0.0000 C   0  0  0  0  0  0  0  0  0  0  0  0
    2.3090   -2.0154    0.0000 C   0  0  0  0  0  0  0  0  0  0  0  0
    2.6691   -0.3212    0.0000 C   0  0  0  0  0  0  0  0  0  0  0  0
    8.6402    3.7219    0.0000 C   0  0  0  0  0  0  0  0  0  0  0  0
    7.3530    4.8809    0.0000 C   0  0  0  0  0  0  0  0  0  0  0  0
    2.0000   -1.0643    0.0000 C   0  0  0  0  0  0  0  0  0  0  0  0
    8.3312    4.6730    0.0000 C   0  0  0  0  0  0  0  0  0  0  0  0
    9.1301   -2.7218    0.0000 H   0  0  0  0  0  0  0  0  0  0  0  0
    9.1301   -5.4218    0.0000 H   0  0  0  0  0  0  0  0  0  0  0  0
    7.5655   -3.1658    0.0000 H   0  0  0  0  0  0  0  0  0  0  0  0
   10.6126   -2.9579    0.0000 H   0  0  0  0  0  0  0  0  0  0  0  0
    9.8242   -2.7002    0.0000 H   0  0  0  0  0  0  0  0  0  0  0  0
    7.1294   -3.6570    0.0000 H   0  0  0  0  0  0  0  0  0  0  0  0
    7.1294   -4.4867    0.0000 H   0  0  0  0  0  0  0  0  0  0  0  0
   11.1197   -4.4866    0.0000 H   0  0  0  0  0  0  0  0  0  0  0  0
   11.1197   -3.6571    0.0000 H   0  0  0  0  0  0  0  0  0  0  0  0
    4.9799    2.7624    0.0000 H   0  0  0  0  0  0  0  0  0  0  0  0
    5.4160    3.2535    0.0000 H   0  0  0  0  0  0  0  0  0  0  0  0
    5.4160    4.0832    0.0000 H   0  0  0  0  0  0  0  0  0  0  0  0
    2.7999    3.2332    0.0000 H   0  0  0  0  0  0  0  0  0  0  0  0
    3.2875    2.5619    0.0000 H   0  0  0  0  0  0  0  0  0  0  0  0
    4.9044    4.7874    0.0000 H   0  0  0  0  0  0  0  0  0  0  0  0
    4.1153    5.0438    0.0000 H   0  0  0  0  0  0  0  0  0  0  0  0
    3.2875    4.7748    0.0000 H   0  0  0  0  0  0  0  0  0  0  0  0
    2.7999    4.1036    0.0000 H   0  0  0  0  0  0  0  0  0  0  0  0
    5.7952   -1.5345    0.0000 H   0  0  0  0  0  0  0  0  0  0  0  0
    5.1030    0.5958    0.0000 H   0  0  0  0  0  0  0  0  0  0  0  0
    6.3454    0.2607    0.0000 H   0  0  0  0  0  0  0  0  0  0  0  0
    6.5111    1.0404    0.0000 H   0  0  0  0  0  0  0  0  0  0  0  0
    6.9966   -0.6921    0.0000 H   0  0  0  0  0  0  0  0  0  0  0  0
    4.7022   -2.2629    0.0000 H   0  0  0  0  0  0  0  0  0  0  0  0
    5.4602   -2.0166    0.0000 H   0  0  0  0  0  0  0  0  0  0  0  0
    4.1248    0.8037    0.0000 H   0  0  0  0  0  0  0  0  0  0  0  0
    3.4788   -2.8129    0.0000 H   0  0  0  0  0  0  0  0  0  0  0  0
    4.0621   -0.0683    0.0000 H   0  0  0  0  0  0  0  0  0  0  0  0
    8.1627    2.3891    0.0000 H   0  0  0  0  0  0  0  0  0  0  0  0
    6.0775    4.2666    0.0000 H   0  0  0  0  0  0  0  0  0  0  0  0
    1.8942   -2.4761    0.0000 H   0  0  0  0  0  0  0  0  0  0  0  0
    2.4775    0.2685    0.0000 H   0  0  0  0  0  0  0  0  0  0  0  0
    7.1615    5.4705    0.0000 H   0  0  0  0  0  0  0  0  0  0  0  0
    1.3936   -0.9354    0.0000 H   0  0  0  0  0  0  0  0  0  0  0  0
    8.7461    5.1337    0.0000 H   0  0  0  0  0  0  0  0  0  0  0  0
   10.0332    3.9747    0.0000 H   0  0  0  0  0  0  0  0  0  0  0  0
    9.8100    2.9243    0.0000 H   0  0  0  0  0  0  0  0  0  0  0  0
  1  8  2  0  0  0  0
  1  9  2  0  0  0  0
  1 10  1  0  0  0  0
  1 30  1  0  0  0  0
  2 14  1  0  0  0  0
  2 17  1  0  0  0  0
  3 14  1  0  0  0  0
  3 18  1  0  0  0  0
 15  4  1  6  0  0  0
  4 26  1  0  0  0  0
  5 10  1  0  0  0  0
  5 19  1  0  0  0  0
 25  6  1  6  0  0  0
  6 66  1  0  0  0  0
  7 26  2  0  0  0  0
 10 27  1  0  0  0  0
 24 11  1  1  0  0  0
 11 26  1  0  0  0  0
 11 63  1  0  0  0  0
 12 37  1  0  0  0  0
 12 76  1  0  0  0  0
 12 77  1  0  0  0  0
 13 14  1  0  0  0  0
 13 15  1  0  0  0  0
 13 16  1  0  0  0  0
 13 41  1  1  0  0  0
 14 42  1  1  0  0  0
 15 17  1  0  0  0  0
 15 43  1  0  0  0  0
 16 18  1  0  0  0  0
 16 44  1  0  0  0  0
 16 45  1  0  0  0  0
 17 46  1  0  0  0  0
 17 47  1  0  0  0  0
 18 48  1  0  0  0  0
 18 49  1  0  0  0  0
 19 20  1  0  0  0  0
 19 21  1  0  0  0  0
 19 50  1  0  0  0  0
 20 22  1  0  0  0  0
 20 51  1  0  0  0  0
 20 52  1  0  0  0  0
 21 23  1  0  0  0  0
 21 53  1  0  0  0  0
 21 54  1  0  0  0  0
 22 23  1  0  0  0  0
 22 55  1  0  0  0  0
 22 56  1  0  0  0  0
 23 57  1  0  0  0  0
 23 58  1  0  0  0  0
 24 25  1  0  0  0  0
 24 28  1  0  0  0  0
 24 59  1  0  0  0  0
 25 27  1  0  0  0  0
 25 60  1  0  0  0  0
 27 61  1  0  0  0  0
 27 62  1  0  0  0  0
 28 29  1  0  0  0  0
 28 64  1  0  0  0  0
 28 65  1  0  0  0  0
 29 31  2  0  0  0  0
 29 32  1  0  0  0  0
 30 33  1  0  0  0  0
 30 34  2  0  0  0  0
 31 35  1  0  0  0  0
 31 67  1  0  0  0  0
 32 36  2  0  0  0  0
 32 68  1  0  0  0  0
 33 37  2  0  0  0  0
 33 69  1  0  0  0  0
 34 38  1  0  0  0  0
 34 70  1  0  0  0  0
 35 39  2  0  0  0  0
 35 71  1  0  0  0  0
 36 39  1  0  0  0  0
 36 72  1  0  0  0  0
 37 40  1  0  0  0  0
 38 40  2  0  0  0  0
 38 73  1  0  0  0  0
 39 74  1  0  0  0  0
 40 75  1  0  0  0  0
M  END
> <PUBCHEM_COMPOUND_CID>
6321047

> <PUBCHEM_COMPOUND_CANONICALIZED>
1

> <PUBCHEM_CACTVS_COMPLEXITY>
921

> <PUBCHEM_CACTVS_HBOND_ACCEPTOR>
10

> <PUBCHEM_CACTVS_HBOND_DONOR>
3

> <PUBCHEM_CACTVS_ROTATABLE_BOND>
12

> <PUBCHEM_CACTVS_SUBSKEYS>
AAADcfB7PABAAAAAAAAAAAAAAAAAAaJEAAAwYAAAAAASAAABQAAAHgQUSAAADTzx2AcwyYLQBgKIAiRCWHDCABAgAgAoiJgIZIkbMCKA0ZGuYARllgAeyAfQ4KgOAAAAACAAAAAAAAAAQAAAAAAAAAAAAA==

> <PUBCHEM_IUPAC_OPENEYE_NAME>
[(3aS,4R,6aR)-2,3,3a,4,5,6a-hexahydrofuro[2,3-b]furan-4-yl] N-[(1S,2R)-3-[(3-aminophenyl)sulfonyl-(cyclopentoxy)amino]-1-benzyl-2-hydroxy-propyl]carbamate

> <PUBCHEM_IUPAC_CAS_NAME>
N-[(2S,3R)-4-[(3-aminophenyl)sulfonyl-cyclopentyloxyamino]-3-hydroxy-1-phenylbutan-2-yl]carbamic acid [(3aS,4R,6aR)-2,3,3a,4,5,6a-hexahydrofuro[2,3-b]furan-4-yl] ester

> <PUBCHEM_IUPAC_NAME_MARKUP>
[(3<I>a</I><I>S</I>,4<I>R</I>,6<I>a</I><I>R</I>)-2,3,3<I>a</I>,4,5,6<I>a</I>-hexahydrofuro[2,3-b]furan-4-yl] <I>N</I>-[(2<I>S</I>,3<I>R</I>)-4-[(3-aminophenyl)sulfonyl-cyclopentyloxyamino]-3-hydroxy-1-phenylbutan-2-yl]carbamate

> <PUBCHEM_IUPAC_NAME>
[(3aS,4R,6aR)-2,3,3a,4,5,6a-hexahydrofuro[2,3-b]furan-4-yl] N-[(2S,3R)-4-[(3-aminophenyl)sulfonyl-cyclopentyloxyamino]-3-hydroxy-1-phenylbutan-2-yl]carbamate

> <PUBCHEM_IUPAC_SYSTEMATIC_NAME>
[(3aS,4R,6aR)-2,3,3a,4,5,6a-hexahydrofuro[2,3-b]furan-4-yl] N-[(2S,3R)-4-[(3-aminophenyl)sulfonyl-cyclopentyloxy-amino]-3-oxidanyl-1-phenyl-butan-2-yl]carbamate

> <PUBCHEM_IUPAC_TRADITIONAL_NAME>
N-[(1S,2R)-3-[(3-aminophenyl)sulfonyl-(cyclopentoxy)amino]-1-benzyl-2-hydroxy-propyl]carbamic acid [(3aS,4R,6aR)-2,3,3a,4,5,6a-hexahydrofuro[2,3-b]furan-4-yl] ester

> <PUBCHEM_IUPAC_INCHI>
InChI=1S/C28H37N3O8S/c29-20-9-6-12-22(16-20)40(34,35)31(39-21-10-4-5-11-21)17-25(32)24(15-19-7-2-1-3-8-19)30-28(33)38-26-18-37-27-23(26)13-14-36-27/h1-3,6-9,12,16,21,23-27,32H,4-5,10-11,13-15,17-18,29H2,(H,30,33)/t23-,24-,25+,26-,27+/m0/s1

> <PUBCHEM_IUPAC_INCHIKEY>
QENNGCUCJBLCNI-UIPNDDLNSA-N

> <PUBCHEM_XLOGP3_AA>
2.9

> <PUBCHEM_EXACT_MASS>
575.23013632

> <PUBCHEM_MOLECULAR_FORMULA>
C28H37N3O8S

> <PUBCHEM_MOLECULAR_WEIGHT>
575.7

> <PUBCHEM_SMILES>
C1CCC(C1)ON(C[C@H]([C@H](CC2=CC=CC=C2)NC(=O)O[C@H]3CO[C@@H]4[C@H]3CCO4)O)S(=O)(=O)C5=CC=CC(=C5)N

> <PUBCHEM_CONNECTIVITY_SMILES>
C1CCC(C1)ON(CC(C(CC2=CC=CC=C2)NC(=O)OC3COC4C3CCO4)O)S(=O)(=O)C5=CC=CC(=C5)N

> <PUBCHEM_CACTVS_TPSA>
158

> <PUBCHEM_MONOISOTOPIC_WEIGHT>
575.23013632

> <PUBCHEM_TOTAL_CHARGE>
0

> <PUBCHEM_HEAVY_ATOM_COUNT>
40

> <PUBCHEM_ATOM_DEF_STEREO_COUNT>
5

> <PUBCHEM_ATOM_UDEF_STEREO_COUNT>
0

> <PUBCHEM_BOND_DEF_STEREO_COUNT>
0

> <PUBCHEM_BOND_UDEF_STEREO_COUNT>
0

> <PUBCHEM_ISOTOPIC_ATOM_COUNT>
0

> <PUBCHEM_COMPONENT_COUNT>
1

> <PUBCHEM_CACTVS_TAUTO_COUNT>
-1

> <PUBCHEM_COORDINATE_TYPE>
1
5
255

> <PUBCHEM_BONDANNOTATIONS>
24  11  5
13  41  5
14  42  5
29  31  8
29  32  8
30  33  8
30  34  8
31  35  8
32  36  8
33  37  8
34  38  8
35  39  8
36  39  8
37  40  8
38  40  8
15  4  6
25  6  6

$$$$
