478
 OpenBabel11192523393D

 70 72  0  0  1  0  0  0  0  0999 V2000
   -8.0666    4.7195    3.3242 C   0  0  0  0  0  0  0  0  0  0  0  0
   -6.9418    5.8700    1.5876 C   0  0  0  0  0  0  0  0  0  0  0  0
   -6.1955    2.9271    1.5277 C   0  0  0  0  0  0  0  0  0  0  0  0
   -6.6797    4.9564    2.7651 C   0  0  2  0  0  0  0  0  0  0  0  0
   -4.9077    1.2400    0.1651 C   0  0  2  0  0  0  0  0  0  0  0  0
   -5.2051    1.9065   -1.2204 C   0  0  1  0  0  0  0  0  0  0  0  0
   -5.7138   -0.0857    0.3155 C   0  0  0  0  0  0  0  0  0  0  0  0
   -5.2168   -1.0192    1.4036 C   0  0  0  0  0  0  0  0  0  0  0  0
   -5.9038   -1.1280    2.6205 C   0  0  0  0  0  0  0  0  0  0  0  0
   -4.0869   -1.8259    1.1955 C   0  0  0  0  0  0  0  0  0  0  0  0
   -5.4663   -2.0152    3.6088 C   0  0  0  0  0  0  0  0  0  0  0  0
   -3.6502   -2.7115    2.1856 C   0  0  0  0  0  0  0  0  0  0  0  0
   -4.3382   -2.8037    3.3931 C   0  0  0  0  0  0  0  0  0  0  0  0
   -4.5932    3.3121   -1.5005 C   0  0  0  0  0  0  0  0  0  0  0  0
   -2.6790    2.6785   -3.1221 C   0  0  0  0  0  0  0  0  0  0  0  0
   -3.4339    3.0256   -4.4150 C   0  0  0  0  0  0  0  0  0  0  0  0
   -2.1117    5.7692   -0.7779 C   0  0  0  0  0  0  0  0  0  0  0  0
   -3.0498    6.5210   -1.4824 C   0  0  0  0  0  0  0  0  0  0  0  0
   -3.0649    7.9231   -1.3418 C   0  0  0  0  0  0  0  0  0  0  0  0
   -2.1371    8.5856   -0.5277 C   0  0  0  0  0  0  0  0  0  0  0  0
   -1.2247    7.8163    0.1946 C   0  0  0  0  0  0  0  0  0  0  0  0
   -1.1913    6.4247    0.0520 C   0  0  0  0  0  0  0  0  0  0  0  0
   -3.1936    4.4769   -4.8298 C   0  0  0  0  0  0  0  0  0  0  0  0
   -2.9692    2.0997   -5.5460 C   0  0  0  0  0  0  0  0  0  0  0  0
   -8.1389    6.6752    2.0565 C   0  0  0  0  0  0  0  0  0  0  0  0
   -5.1128    2.1330    1.3066 N   0  0  0  0  0  0  0  0  0  0  0  0
   -3.1593    3.4003   -1.9150 N   0  0  0  0  0  0  0  0  0  0  0  0
   -2.2750    9.9501   -0.2491 N   0  0  0  0  0  0  0  0  0  0  0  0
   -5.8795    3.8000    2.5091 O   0  0  0  0  0  0  0  0  0  0  0  0
   -7.2288    2.9223    0.8737 O   0  0  0  0  0  0  0  0  0  0  0  0
   -4.9361    0.9998   -2.3013 O   0  0  0  0  0  0  0  0  0  0  0  0
   -2.4230    3.5256    0.5029 O   0  0  0  0  0  0  0  0  0  0  0  0
   -0.6897    3.6802   -1.3234 O   0  0  0  0  0  0  0  0  0  0  0  0
   -8.7793    5.9503    3.1198 O   0  0  0  0  0  0  0  0  0  0  0  0
   -2.0098    3.9824   -0.8130 S   0  0  0  0  0  0  0  0  0  0  0  0
   -8.6087    3.9145    2.8214 H   0  0  0  0  0  0  0  0  0  0  0  0
   -8.0423    4.4903    4.3944 H   0  0  0  0  0  0  0  0  0  0  0  0
   -6.0816    6.5003    1.3409 H   0  0  0  0  0  0  0  0  0  0  0  0
   -7.1941    5.3251    0.6738 H   0  0  0  0  0  0  0  0  0  0  0  0
   -6.1163    5.5399    3.5056 H   0  0  0  0  0  0  0  0  0  0  0  0
   -3.8406    0.9829    0.1836 H   0  0  0  0  0  0  0  0  0  0  0  0
   -6.2905    2.0566   -1.2644 H   0  0  0  0  0  0  0  0  0  0  0  0
   -6.7765    0.1335    0.4811 H   0  0  0  0  0  0  0  0  0  0  0  0
   -5.6816   -0.6607   -0.6194 H   0  0  0  0  0  0  0  0  0  0  0  0
   -6.7965   -0.5337    2.8025 H   0  0  0  0  0  0  0  0  0  0  0  0
   -3.5468   -1.7886    0.2529 H   0  0  0  0  0  0  0  0  0  0  0  0
   -6.0120   -2.0965    4.5455 H   0  0  0  0  0  0  0  0  0  0  0  0
   -2.7778   -3.3365    2.0116 H   0  0  0  0  0  0  0  0  0  0  0  0
   -4.0008   -3.4948    4.1621 H   0  0  0  0  0  0  0  0  0  0  0  0
   -5.1741    3.7714   -2.3098 H   0  0  0  0  0  0  0  0  0  0  0  0
   -4.7622    3.9681   -0.6399 H   0  0  0  0  0  0  0  0  0  0  0  0
   -1.6207    2.8916   -3.3040 H   0  0  0  0  0  0  0  0  0  0  0  0
   -2.7134    1.6033   -2.9266 H   0  0  0  0  0  0  0  0  0  0  0  0
   -4.5104    2.8722   -4.2834 H   0  0  0  0  0  0  0  0  0  0  0  0
   -3.7894    6.0546   -2.1213 H   0  0  0  0  0  0  0  0  0  0  0  0
   -3.8229    8.5011   -1.8674 H   0  0  0  0  0  0  0  0  0  0  0  0
   -0.5314    8.2932    0.8832 H   0  0  0  0  0  0  0  0  0  0  0  0
   -0.4556    5.8519    0.6133 H   0  0  0  0  0  0  0  0  0  0  0  0
   -2.1234    4.6913   -4.9258 H   0  0  0  0  0  0  0  0  0  0  0  0
   -3.6691    4.6936   -5.7919 H   0  0  0  0  0  0  0  0  0  0  0  0
   -3.6144    5.1675   -4.0984 H   0  0  0  0  0  0  0  0  0  0  0  0
   -3.1208    1.0481   -5.2810 H   0  0  0  0  0  0  0  0  0  0  0  0
   -3.5312    2.2966   -6.4654 H   0  0  0  0  0  0  0  0  0  0  0  0
   -1.9052    2.2437   -5.7659 H   0  0  0  0  0  0  0  0  0  0  0  0
   -7.8369    7.6534    2.4445 H   0  0  0  0  0  0  0  0  0  0  0  0
   -8.8621    6.8351    1.2508 H   0  0  0  0  0  0  0  0  0  0  0  0
   -4.3216    2.3045    1.9174 H   0  0  0  0  0  0  0  0  0  0  0  0
   -1.4386   10.3896    0.1243 H   0  0  0  0  0  0  0  0  0  0  0  0
   -2.6968   10.4974   -0.9923 H   0  0  0  0  0  0  0  0  0  0  0  0
   -4.1826    0.4414   -2.0430 H   0  0  0  0  0  0  0  0  0  0  0  0
  1  4  1  0  0  0  0
  1 34  1  0  0  0  0
  1 36  1  0  0  0  0
  1 37  1  0  0  0  0
  2  4  1  0  0  0  0
  2 25  1  0  0  0  0
  2 38  1  0  0  0  0
  2 39  1  0  0  0  0
  3 26  1  0  0  0  0
  3 29  1  0  0  0  0
  3 30  2  0  0  0  0
  4 40  1  1  0  0  0
  4 29  1  0  0  0  0
  5 26  1  0  0  0  0
  5 41  1  6  0  0  0
  5  7  1  0  0  0  0
  5  6  1  0  0  0  0
  6 14  1  0  0  0  0
  6 31  1  0  0  0  0
  6 42  1  6  0  0  0
  7  8  1  0  0  0  0
  7 43  1  0  0  0  0
  7 44  1  0  0  0  0
  8  9  2  0  0  0  0
  8 10  1  0  0  0  0
  9 11  1  0  0  0  0
  9 45  1  0  0  0  0
 10 12  2  0  0  0  0
 10 46  1  0  0  0  0
 11 13  2  0  0  0  0
 11 47  1  0  0  0  0
 12 13  1  0  0  0  0
 12 48  1  0  0  0  0
 13 49  1  0  0  0  0
 14 27  1  0  0  0  0
 14 50  1  0  0  0  0
 14 51  1  0  0  0  0
 15 16  1  0  0  0  0
 15 27  1  0  0  0  0
 15 52  1  0  0  0  0
 15 53  1  0  0  0  0
 16 23  1  0  0  0  0
 16 24  1  0  0  0  0
 16 54  1  0  0  0  0
 17 18  2  0  0  0  0
 17 22  1  0  0  0  0
 17 35  1  0  0  0  0
 18 19  1  0  0  0  0
 18 55  1  0  0  0  0
 19 20  2  0  0  0  0
 19 56  1  0  0  0  0
 20 21  1  0  0  0  0
 20 28  1  0  0  0  0
 21 22  2  0  0  0  0
 21 57  1  0  0  0  0
 22 58  1  0  0  0  0
 23 59  1  0  0  0  0
 23 60  1  0  0  0  0
 23 61  1  0  0  0  0
 24 62  1  0  0  0  0
 24 63  1  0  0  0  0
 24 64  1  0  0  0  0
 25 34  1  0  0  0  0
 25 65  1  0  0  0  0
 25 66  1  0  0  0  0
 26 67  1  0  0  0  0
 27 35  1  0  0  0  0
 28 68  1  0  0  0  0
 28 69  1  0  0  0  0
 31 70  1  0  0  0  0
 32 35  2  0  0  0  0
 33 35  2  0  0  0  0
M  END
>  <Energy>
6.38174

$$$$
