213039
 OpenBabel11192523393D

 75 78  0  0  1  0  0  0  0  0999 V2000
    1.7840   -0.7423    0.2302 S   0  0  0  0  0  0  0  0  0  0  0  0
    7.0184    4.7478   -7.5545 O   0  0  0  0  0  0  0  0  0  0  0  0
    7.0546    2.6024   -8.4929 O   0  0  0  0  0  0  0  0  0  0  0  0
    4.3821    3.4490   -5.4952 O   0  0  0  0  0  0  0  0  0  0  0  0
    1.4069    3.1750   -1.8419 O   0  0  0  0  0  0  0  0  0  0  0  0
    2.3207    3.7630   -6.4210 O   0  0  0  0  0  0  0  0  0  0  0  0
    1.9506   -0.4820    1.6422 O   0  0  0  0  0  0  0  0  0  0  0  0
    2.9133   -1.1608   -0.5766 O   0  0  0  0  0  0  0  0  0  0  0  0
    2.5989    2.5910   -4.4554 N   0  0  0  0  0  0  0  0  0  0  0  0
    1.0939    0.6777   -0.5262 N   0  0  0  0  0  0  0  0  0  0  0  0
   -2.7213   -4.5793   -0.5418 N   0  0  0  0  0  0  0  0  0  0  0  0
    4.9702    3.5990   -7.9506 C   0  0  2  0  0  0  0  0  0  0  0  0
    6.3783    3.8593   -8.4649 C   0  0  1  0  0  0  0  0  0  0  0  0
    4.9599    4.2271   -6.5541 C   0  0  2  0  0  0  0  0  0  0  0  0
    4.7857    2.1006   -8.0665 C   0  0  0  0  0  0  0  0  0  0  0  0
    6.4351    4.4822   -6.2785 C   0  0  0  0  0  0  0  0  0  0  0  0
    6.0730    1.5868   -8.6702 C   0  0  0  0  0  0  0  0  0  0  0  0
    1.1737    2.4780   -4.1364 C   0  0  2  0  0  0  0  0  0  0  0  0
    0.8615    2.1095   -2.6507 C   0  0  1  0  0  0  0  0  0  0  0  0
    3.0329    3.3083   -5.5404 C   0  0  0  0  0  0  0  0  0  0  0  0
    1.3206    0.7559   -2.0465 C   0  0  0  0  0  0  0  0  0  0  0  0
    0.3271    1.7203   -5.1906 C   0  0  0  0  0  0  0  0  0  0  0  0
   -0.2549    1.1056   -0.0192 C   0  0  0  0  0  0  0  0  0  0  0  0
   -0.2438    1.6227    1.4335 C   0  0  0  0  0  0  0  0  0  0  0  0
    0.7874    0.3548   -5.6360 C   0  0  0  0  0  0  0  0  0  0  0  0
    0.5216   -2.0045    0.0851 C   0  0  0  0  0  0  0  0  0  0  0  0
    0.6893    2.8200    1.6152 C   0  0  0  0  0  0  0  0  0  0  0  0
   -1.6635    2.0039    1.8643 C   0  0  0  0  0  0  0  0  0  0  0  0
    0.2662   -0.8052   -5.0584 C   0  0  0  0  0  0  0  0  0  0  0  0
    1.6823    0.2297   -6.7079 C   0  0  0  0  0  0  0  0  0  0  0  0
    0.6045   -2.9852   -0.9011 C   0  0  0  0  0  0  0  0  0  0  0  0
   -0.5433   -2.0225    0.9952 C   0  0  0  0  0  0  0  0  0  0  0  0
    0.6708   -2.0696   -5.5120 C   0  0  0  0  0  0  0  0  0  0  0  0
    2.0771   -1.0273   -7.1677 C   0  0  0  0  0  0  0  0  0  0  0  0
    1.5778   -2.1723   -6.5630 C   0  0  0  0  0  0  0  0  0  0  0  0
   -0.4493   -3.8972   -1.0545 C   0  0  0  0  0  0  0  0  0  0  0  0
   -1.6044   -2.9130    0.8117 C   0  0  0  0  0  0  0  0  0  0  0  0
   -1.5675   -3.8620   -0.2117 C   0  0  0  0  0  0  0  0  0  0  0  0
    4.2367    4.1230   -8.5763 H   0  0  0  0  0  0  0  0  0  0  0  0
    6.3931    4.2867   -9.4731 H   0  0  0  0  0  0  0  0  0  0  0  0
    4.4597    5.2049   -6.6012 H   0  0  0  0  0  0  0  0  0  0  0  0
    3.9361    1.8485   -8.7107 H   0  0  0  0  0  0  0  0  0  0  0  0
    4.6069    1.6151   -7.1041 H   0  0  0  0  0  0  0  0  0  0  0  0
    6.9291    3.6147   -5.8259 H   0  0  0  0  0  0  0  0  0  0  0  0
    6.5918    5.3407   -5.6189 H   0  0  0  0  0  0  0  0  0  0  0  0
    6.4106    0.6624   -8.1924 H   0  0  0  0  0  0  0  0  0  0  0  0
    5.9602    1.3981   -9.7430 H   0  0  0  0  0  0  0  0  0  0  0  0
    0.8201    3.5196   -4.2175 H   0  0  0  0  0  0  0  0  0  0  0  0
   -0.2282    2.1742   -2.5589 H   0  0  0  0  0  0  0  0  0  0  0  0
    2.4034    0.6825   -2.2032 H   0  0  0  0  0  0  0  0  0  0  0  0
    0.8284   -0.0920   -2.5198 H   0  0  0  0  0  0  0  0  0  0  0  0
    3.2715    2.5460   -3.7009 H   0  0  0  0  0  0  0  0  0  0  0  0
   -0.7112    1.6533   -4.8387 H   0  0  0  0  0  0  0  0  0  0  0  0
    0.2541    2.3443   -6.0941 H   0  0  0  0  0  0  0  0  0  0  0  0
   -0.6521    1.9170   -0.6301 H   0  0  0  0  0  0  0  0  0  0  0  0
   -0.9739    0.2923   -0.1499 H   0  0  0  0  0  0  0  0  0  0  0  0
    0.0815    0.8397    2.1207 H   0  0  0  0  0  0  0  0  0  0  0  0
    1.4641    2.8289   -0.9308 H   0  0  0  0  0  0  0  0  0  0  0  0
    0.3911    3.6561    0.9741 H   0  0  0  0  0  0  0  0  0  0  0  0
    0.6706    3.1706    2.6527 H   0  0  0  0  0  0  0  0  0  0  0  0
    1.7248    2.5560    1.3788 H   0  0  0  0  0  0  0  0  0  0  0  0
   -2.3352    1.1418    1.7936 H   0  0  0  0  0  0  0  0  0  0  0  0
   -1.6730    2.3472    2.9046 H   0  0  0  0  0  0  0  0  0  0  0  0
   -2.0692    2.8063    1.2394 H   0  0  0  0  0  0  0  0  0  0  0  0
   -0.4791   -0.7507   -4.2698 H   0  0  0  0  0  0  0  0  0  0  0  0
    2.0549    1.1153   -7.2133 H   0  0  0  0  0  0  0  0  0  0  0  0
    1.4643   -3.0419   -1.5640 H   0  0  0  0  0  0  0  0  0  0  0  0
   -0.5854   -1.3194    1.8220 H   0  0  0  0  0  0  0  0  0  0  0  0
    0.2633   -2.9632   -5.0583 H   0  0  0  0  0  0  0  0  0  0  0  0
    2.7627   -1.1094   -8.0090 H   0  0  0  0  0  0  0  0  0  0  0  0
   -0.3991   -4.6309   -1.8557 H   0  0  0  0  0  0  0  0  0  0  0  0
   -2.4691   -2.8498    1.4689 H   0  0  0  0  0  0  0  0  0  0  0  0
    1.8795   -3.1544   -6.9205 H   0  0  0  0  0  0  0  0  0  0  0  0
   -3.3800   -4.7065    0.2201 H   0  0  0  0  0  0  0  0  0  0  0  0
   -2.5589   -5.4332   -1.0650 H   0  0  0  0  0  0  0  0  0  0  0  0
  1  7  2  0  0  0  0
  1  8  2  0  0  0  0
  1 10  1  0  0  0  0
  1 26  1  0  0  0  0
  2 13  1  0  0  0  0
  2 16  1  0  0  0  0
  3 13  1  0  0  0  0
  3 17  1  0  0  0  0
  4 20  1  0  0  0  0
  5 58  1  0  0  0  0
  6 20  2  0  0  0  0
  9 20  1  0  0  0  0
  9 52  1  0  0  0  0
 10 21  1  0  0  0  0
 10 23  1  0  0  0  0
 11 38  1  0  0  0  0
 11 74  1  0  0  0  0
 11 75  1  0  0  0  0
 12 13  1  0  0  0  0
 12 14  1  0  0  0  0
 12 15  1  0  0  0  0
 12 39  1  6  0  0  0
 13 40  1  6  0  0  0
 14  4  1  0  0  0  0
 14 16  1  0  0  0  0
 14 41  1  6  0  0  0
 15 17  1  0  0  0  0
 15 42  1  0  0  0  0
 15 43  1  0  0  0  0
 16 44  1  0  0  0  0
 16 45  1  0  0  0  0
 17 46  1  0  0  0  0
 17 47  1  0  0  0  0
 18  9  1  0  0  0  0
 18 19  1  0  0  0  0
 18 22  1  0  0  0  0
 18 48  1  6  0  0  0
 19  5  1  0  0  0  0
 19 21  1  0  0  0  0
 19 49  1  1  0  0  0
 21 50  1  0  0  0  0
 21 51  1  0  0  0  0
 22 25  1  0  0  0  0
 22 53  1  0  0  0  0
 22 54  1  0  0  0  0
 23 24  1  0  0  0  0
 23 55  1  0  0  0  0
 23 56  1  0  0  0  0
 24 27  1  0  0  0  0
 24 28  1  0  0  0  0
 24 57  1  0  0  0  0
 25 29  2  0  0  0  0
 25 30  1  0  0  0  0
 26 31  2  0  0  0  0
 26 32  1  0  0  0  0
 27 59  1  0  0  0  0
 27 60  1  0  0  0  0
 27 61  1  0  0  0  0
 28 62  1  0  0  0  0
 28 63  1  0  0  0  0
 28 64  1  0  0  0  0
 29 33  1  0  0  0  0
 29 65  1  0  0  0  0
 30 34  2  0  0  0  0
 30 66  1  0  0  0  0
 31 36  1  0  0  0  0
 31 67  1  0  0  0  0
 32 37  2  0  0  0  0
 32 68  1  0  0  0  0
 33 35  2  0  0  0  0
 33 69  1  0  0  0  0
 34 35  1  0  0  0  0
 34 70  1  0  0  0  0
 35 73  1  0  0  0  0
 36 38  2  0  0  0  0
 36 71  1  0  0  0  0
 37 38  1  0  0  0  0
 37 72  1  0  0  0  0
M  END
>  <PUBCHEM_COMPOUND_CID>
213039

>  <PUBCHEM_COMPOUND_CANONICALIZED>
1

>  <PUBCHEM_CACTVS_COMPLEXITY>
853

>  <PUBCHEM_CACTVS_HBOND_ACCEPTOR>
9

>  <PUBCHEM_CACTVS_HBOND_DONOR>
3

>  <PUBCHEM_CACTVS_ROTATABLE_BOND>
12

>  <PUBCHEM_CACTVS_SUBSKEYS>
AAADcfB7OABAAAAAAAAAAAAAAAAAASJAAAAwYAAAAAASAAABQAAAHgQQSAAADTzx2AcyyYLABgKIAiRCWHDCABAgAgAIiJgIZIkbMCKA0ZGuYABllgCeyAfQ4KgOAAQAAAAAAAAACAAAAAAAAAAAAAAAAA==

>  <PUBCHEM_IUPAC_OPENEYE_NAME>
[(3aS,4R,6aR)-2,3,3a,4,5,6a-hexahydrofuro[2,3-b]furan-4-yl] N-[(1S,2R)-3-[(4-aminophenyl)sulfonyl-isobutyl-amino]-1-benzyl-2-hydroxy-propyl]carbamate

>  <PUBCHEM_IUPAC_CAS_NAME>
N-[(2S,3R)-4-[(4-aminophenyl)sulfonyl-(2-methylpropyl)amino]-3-hydroxy-1-phenylbutan-2-yl]carbamic acid [(3aS,4R,6aR)-2,3,3a,4,5,6a-hexahydrofuro[2,3-b]furan-4-yl] ester

>  <PUBCHEM_IUPAC_NAME_MARKUP>
[(3<I>a</I><I>S</I>,4<I>R</I>,6<I>a</I><I>R</I>)-2,3,3<I>a</I>,4,5,6<I>a</I>-hexahydrofuro[2,3-b]furan-4-yl] <I>N</I>-[(2<I>S</I>,3<I>R</I>)-4-[(4-aminophenyl)sulfonyl-(2-methylpropyl)amino]-3-hydroxy-1-phenylbutan-2-yl]carbamate

>  <PUBCHEM_IUPAC_NAME>
[(3aS,4R,6aR)-2,3,3a,4,5,6a-hexahydrofuro[2,3-b]furan-4-yl] N-[(2S,3R)-4-[(4-aminophenyl)sulfonyl-(2-methylpropyl)amino]-3-hydroxy-1-phenylbutan-2-yl]carbamate

>  <PUBCHEM_IUPAC_SYSTEMATIC_NAME>
[(3aS,4R,6aR)-2,3,3a,4,5,6a-hexahydrofuro[2,3-b]furan-4-yl] N-[(2S,3R)-4-[(4-aminophenyl)sulfonyl-(2-methylpropyl)amino]-3-oxidanyl-1-phenyl-butan-2-yl]carbamate

>  <PUBCHEM_IUPAC_TRADITIONAL_NAME>
N-[(1S,2R)-1-benzyl-2-hydroxy-3-[isobutyl(sulfanilyl)amino]propyl]carbamic acid [(3aS,4R,6aR)-2,3,3a,4,5,6a-hexahydrofuro[2,3-b]furan-4-yl] ester

>  <PUBCHEM_IUPAC_INCHI>
InChI=1S/C27H37N3O7S/c1-18(2)15-30(38(33,34)21-10-8-20(28)9-11-21)16-24(31)23(14-19-6-4-3-5-7-19)29-27(32)37-25-17-36-26-22(25)12-13-35-26/h3-11,18,22-26,31H,12-17,28H2,1-2H3,(H,29,32)/t22-,23-,24+,25-,26+/m0/s1

>  <PUBCHEM_IUPAC_INCHIKEY>
CJBJHOAVZSMMDJ-HEXNFIEUSA-N

>  <PUBCHEM_XLOGP3_AA>
2.9

>  <PUBCHEM_EXACT_MASS>
547.23522170

>  <PUBCHEM_MOLECULAR_FORMULA>
C27H37N3O7S

>  <PUBCHEM_MOLECULAR_WEIGHT>
547.7

>  <PUBCHEM_SMILES>
CC(C)CN(C[C@H]([C@H](CC1=CC=CC=C1)NC(=O)O[C@H]2CO[C@@H]3[C@H]2CCO3)O)S(=O)(=O)C4=CC=C(C=C4)N

>  <PUBCHEM_CONNECTIVITY_SMILES>
CC(C)CN(CC(C(CC1=CC=CC=C1)NC(=O)OC2COC3C2CCO3)O)S(=O)(=O)C4=CC=C(C=C4)N

>  <PUBCHEM_CACTVS_TPSA>
149

>  <PUBCHEM_MONOISOTOPIC_WEIGHT>
547.23522170

>  <PUBCHEM_TOTAL_CHARGE>
0

>  <PUBCHEM_HEAVY_ATOM_COUNT>
38

>  <PUBCHEM_ATOM_DEF_STEREO_COUNT>
5

>  <PUBCHEM_ATOM_UDEF_STEREO_COUNT>
0

>  <PUBCHEM_BOND_DEF_STEREO_COUNT>
0

>  <PUBCHEM_BOND_UDEF_STEREO_COUNT>
0

>  <PUBCHEM_ISOTOPIC_ATOM_COUNT>
0

>  <PUBCHEM_COMPONENT_COUNT>
1

>  <PUBCHEM_CACTVS_TAUTO_COUNT>
-1

>  <PUBCHEM_COORDINATE_TYPE>
1
5
255

>  <PUBCHEM_BONDANNOTATIONS>
12  39  5
13  40  5
25  29  8
25  30  8
26  31  8
26  32  8
29  33  8
30  34  8
31  36  8
32  37  8
33  35  8
34  35  8
36  38  8
37  38  8
14  4  6
19  5  6
18  9  5

>  <Energy>
-4.98229

$$$$
